 ****** HSPICE -- Q-2020.03-SP1 win64 (May 27 2020) ******                      
  Copyright (c) 1986 - 2023 by Synopsys, Inc. All Rights Reserved.              
  This software and the associated documentation are proprietary
  to Synopsys, Inc. This software may only be used in accordance
  with the terms and conditions of a written license agreement with
  Synopsys, Inc. All other use, reproduction, or distribution of
  this software is strictly prohibited.
  Input File: Project.sp                                                        
  Command line options: C:\synopsys\Hspice_Q-2020.03-SP1\WIN64\hspice.com -i Project.sp -o D:\AA-University\Virtual_Classes\Electronic3\Project\Phase_01\HSpice\Project.lis
  Start time: Sun Jan  1 16:20:04 2023
  lic:  
  lic: FLEXlm: SDK_12.6 
  lic: USER:   ALI                  HOSTNAME: LAPTOP-2Q0F2BLA 
  lic: HOSTID: "000000000000"       PID:      10024 
  lic: The desired vendor daemon is down.  Check the lmgrd log file, or try lmre
 r 
  lic: Using FLEXlm license files: 
  lic: 27000@LAPTOP-2Q0F2BLA 
  lic: Unable to checkout (hspice) 
  lic:   
  lic: The desired vendor daemon is down.  Check the lmgrd log file, or try lmre
 r 
  lic: Using FLEXlm license files: 
  lic: 27000@LAPTOP-2Q0F2BLA 
  lic: Unable to checkout (hspicewin) 
  lic:   
           job total runtime         0.00 seconds


 lic: total license checkout elapse time:        0.03(s)
